  Page 1                                    Fri Aug 04 01:37:25 2023

  ******************************************************************
  *                           E P A N E T                          *
  *                   Hydraulic and Water Quality                  *
  *                   Analysis for Pipe Networks                   *
  *                         Version 2.2                            *
  ******************************************************************
  
  Analysis begun Fri Aug 04 01:37:25 2023

  WARNING: Negative pressures at 0:00:00 hrs.
  WARNING: FCV 15 open but cannot deliver flow at 0:00:00 hrs.
   
  WARNING: Negative pressures at 0:04:18 hrs.
  WARNING: FCV 15 open but cannot deliver flow at 0:04:18 hrs.
   
  WARNING: Negative pressures at 0:10:08 hrs.
  WARNING: FCV 15 open but cannot deliver flow at 0:10:08 hrs.
   
  WARNING: Negative pressures at 0:14:26 hrs.
  WARNING: FCV 15 open but cannot deliver flow at 0:14:26 hrs.
   
  WARNING: Negative pressures at 0:20:16 hrs.
  WARNING: FCV 15 open but cannot deliver flow at 0:20:16 hrs.
   
  WARNING: Negative pressures at 0:24:34 hrs.
  WARNING: FCV 15 open but cannot deliver flow at 0:24:34 hrs.
   
  WARNING: Negative pressures at 0:30:24 hrs.
  WARNING: FCV 15 open but cannot deliver flow at 0:30:24 hrs.
   
  WARNING: Negative pressures at 0:34:42 hrs.
  WARNING: FCV 15 open but cannot deliver flow at 0:34:42 hrs.
   
  WARNING: Negative pressures at 0:40:32 hrs.
  WARNING: FCV 15 open but cannot deliver flow at 0:40:32 hrs.
   
  WARNING: Negative pressures at 0:44:50 hrs.
  WARNING: FCV 15 open but cannot deliver flow at 0:44:50 hrs.
   
  WARNING: Negative pressures at 0:47:45 hrs.
  WARNING: FCV 7 open but cannot deliver flow at 0:47:45 hrs.
  WARNING: FCV 15 open but cannot deliver flow at 0:47:45 hrs.
   
  WARNING: Negative pressures at 0:53:49 hrs.
  WARNING: FCV 7 open but cannot deliver flow at 0:53:49 hrs.
  WARNING: FCV 15 open but cannot deliver flow at 0:53:49 hrs.
   
  WARNING: Negative pressures at 0:56:56 hrs.
  WARNING: FCV 7 open but cannot deliver flow at 0:56:56 hrs.
  WARNING: FCV 15 open but cannot deliver flow at 0:56:56 hrs.
   
  WARNING: Negative pressures at 1:00:00 hrs.
  WARNING: FCV 7 open but cannot deliver flow at 1:00:00 hrs.
  WARNING: FCV 15 open but cannot deliver flow at 1:00:00 hrs.
   
  WARNING: Negative pressures at 1:07:58 hrs.
  WARNING: FCV 7 open but cannot deliver flow at 1:07:58 hrs.
  WARNING: FCV 15 open but cannot deliver flow at 1:07:58 hrs.
   
  WARNING: Negative pressures at 1:24:04 hrs.
  WARNING: FCV 7 open but cannot deliver flow at 1:24:04 hrs.
  WARNING: FCV 15 open but cannot deliver flow at 1:24:04 hrs.
   
  WARNING: Negative pressures at 1:25:09 hrs.
  WARNING: FCV 7 open but cannot deliver flow at 1:25:09 hrs.
  WARNING: FCV 15 open but cannot deliver flow at 1:25:09 hrs.
   
  WARNING: Negative pressures at 1:26:48 hrs.
  WARNING: FCV 7 open but cannot deliver flow at 1:26:48 hrs.
  WARNING: FCV 15 open but cannot deliver flow at 1:26:48 hrs.
   
  WARNING: Negative pressures at 1:26:55 hrs.
  WARNING: FCV 7 open but cannot deliver flow at 1:26:55 hrs.
  WARNING: FCV 15 open but cannot deliver flow at 1:26:55 hrs.
   
  WARNING: Negative pressures at 2:00:00 hrs.
  WARNING: FCV 7 open but cannot deliver flow at 2:00:00 hrs.
  WARNING: FCV 15 open but cannot deliver flow at 2:00:00 hrs.
   
  WARNING: Negative pressures at 2:02:10 hrs.
  WARNING: FCV 7 open but cannot deliver flow at 2:02:10 hrs.
  WARNING: FCV 15 open but cannot deliver flow at 2:02:10 hrs.
   
  WARNING: Negative pressures at 3:00:00 hrs.
  WARNING: FCV 7 open but cannot deliver flow at 3:00:00 hrs.
  WARNING: FCV 15 open but cannot deliver flow at 3:00:00 hrs.
   
  WARNING: Negative pressures at 3:02:32 hrs.
  WARNING: FCV 7 open but cannot deliver flow at 3:02:32 hrs.
  WARNING: FCV 15 open but cannot deliver flow at 3:02:32 hrs.
   
  WARNING: Negative pressures at 3:58:54 hrs.
  WARNING: FCV 7 open but cannot deliver flow at 3:58:54 hrs.
  WARNING: FCV 15 open but cannot deliver flow at 3:58:54 hrs.
   
  WARNING: Negative pressures at 4:00:00 hrs.
  WARNING: FCV 7 open but cannot deliver flow at 4:00:00 hrs.
   
  WARNING: Negative pressures at 4:01:46 hrs.
  WARNING: FCV 7 open but cannot deliver flow at 4:01:46 hrs.
   
  WARNING: Negative pressures at 4:02:03 hrs.
  WARNING: FCV 7 open but cannot deliver flow at 4:02:03 hrs.
   
  WARNING: Negative pressures at 4:02:08 hrs.
  WARNING: FCV 7 open but cannot deliver flow at 4:02:08 hrs.
   
  WARNING: Negative pressures at 4:14:06 hrs.
   
  WARNING: Negative pressures at 4:18:21 hrs.
   
  WARNING: Negative pressures at 4:20:07 hrs.
  WARNING: FCV 7 open but cannot deliver flow at 4:20:07 hrs.
   
  WARNING: Negative pressures at 4:22:36 hrs.
   
  WARNING: Negative pressures at 4:23:51 hrs.
  WARNING: FCV 7 open but cannot deliver flow at 4:23:51 hrs.
   
  WARNING: Negative pressures at 4:28:47 hrs.
   
  WARNING: Negative pressures at 4:31:15 hrs.
  WARNING: FCV 7 open but cannot deliver flow at 4:31:15 hrs.
   
  WARNING: Negative pressures at 4:33:05 hrs.
   
  WARNING: Negative pressures at 4:34:00 hrs.
  WARNING: FCV 7 open but cannot deliver flow at 4:34:00 hrs.
   
  WARNING: Negative pressures at 4:39:18 hrs.
   
  WARNING: Negative pressures at 4:41:57 hrs.
  WARNING: FCV 7 open but cannot deliver flow at 4:41:57 hrs.
   
  WARNING: Negative pressures at 4:43:36 hrs.
   
  WARNING: Negative pressures at 4:44:26 hrs.
  WARNING: FCV 7 open but cannot deliver flow at 4:44:26 hrs.
   
  WARNING: Negative pressures at 4:49:50 hrs.
   
  WARNING: Negative pressures at 4:52:32 hrs.
  WARNING: FCV 7 open but cannot deliver flow at 4:52:32 hrs.
   
  WARNING: Negative pressures at 4:54:09 hrs.
   
  WARNING: Negative pressures at 4:54:57 hrs.
  WARNING: FCV 7 open but cannot deliver flow at 4:54:57 hrs.
   
  WARNING: Negative pressures at 5:00:00 hrs.
   
  WARNING: Negative pressures at 5:00:21 hrs.
   
  WARNING: Negative pressures at 5:03:21 hrs.
  WARNING: FCV 7 open but cannot deliver flow at 5:03:21 hrs.
   
  WARNING: Negative pressures at 5:04:45 hrs.
   
  WARNING: Negative pressures at 5:06:01 hrs.
  WARNING: FCV 7 open but cannot deliver flow at 5:06:01 hrs.
   
  WARNING: Negative pressures at 5:10:43 hrs.
   
  WARNING: Negative pressures at 5:14:58 hrs.
  WARNING: FCV 7 open but cannot deliver flow at 5:14:58 hrs.
   
  WARNING: Negative pressures at 5:15:08 hrs.
   
  WARNING: Negative pressures at 5:15:17 hrs.
  WARNING: FCV 7 open but cannot deliver flow at 5:15:17 hrs.
   
  WARNING: Negative pressures at 5:21:11 hrs.
   
  WARNING: Negative pressures at 5:25:36 hrs.
   
  WARNING: Negative pressures at 5:26:30 hrs.
  WARNING: FCV 7 open but cannot deliver flow at 5:26:30 hrs.
   
  WARNING: Negative pressures at 5:31:36 hrs.
   
  WARNING: Negative pressures at 5:36:02 hrs.
   
  WARNING: Negative pressures at 5:36:12 hrs.
  WARNING: FCV 7 open but cannot deliver flow at 5:36:12 hrs.
   
  WARNING: Negative pressures at 5:42:05 hrs.
   
  WARNING: Negative pressures at 5:46:30 hrs.
   
  WARNING: Negative pressures at 5:47:23 hrs.
  WARNING: FCV 7 open but cannot deliver flow at 5:47:23 hrs.
   
  WARNING: Negative pressures at 5:52:30 hrs.
   
  WARNING: Negative pressures at 5:56:55 hrs.
   
  WARNING: Negative pressures at 5:57:06 hrs.
  WARNING: FCV 7 open but cannot deliver flow at 5:57:06 hrs.
   
  WARNING: Negative pressures at 6:00:00 hrs.
   
  WARNING: Negative pressures at 6:02:43 hrs.
   
  WARNING: Negative pressures at 6:04:26 hrs.
  WARNING: FCV 7 open but cannot deliver flow at 6:04:26 hrs.
   
  WARNING: Negative pressures at 6:07:10 hrs.
   
  WARNING: Negative pressures at 6:12:42 hrs.
   
  WARNING: Negative pressures at 6:12:45 hrs.
  WARNING: FCV 7 open but cannot deliver flow at 6:12:45 hrs.
   
  WARNING: Negative pressures at 6:17:02 hrs.
   
  WARNING: Negative pressures at 6:22:34 hrs.
   
  WARNING: Negative pressures at 6:25:48 hrs.
  WARNING: FCV 7 open but cannot deliver flow at 6:25:48 hrs.
   
  WARNING: Negative pressures at 6:27:03 hrs.
   
  WARNING: Negative pressures at 6:29:37 hrs.
  WARNING: FCV 7 open but cannot deliver flow at 6:29:37 hrs.
   
  WARNING: Negative pressures at 6:32:43 hrs.
   
  WARNING: Negative pressures at 6:37:12 hrs.
   
  WARNING: Negative pressures at 6:39:06 hrs.
  WARNING: FCV 7 open but cannot deliver flow at 6:39:06 hrs.
   
  WARNING: Negative pressures at 6:42:53 hrs.
   
  WARNING: Negative pressures at 6:47:22 hrs.
   
  WARNING: Negative pressures at 6:50:41 hrs.
  WARNING: FCV 7 open but cannot deliver flow at 6:50:41 hrs.
   
  WARNING: Negative pressures at 6:53:00 hrs.
   
  WARNING: Negative pressures at 6:57:29 hrs.
   
  WARNING: Negative pressures at 6:57:47 hrs.
  WARNING: FCV 7 open but cannot deliver flow at 6:57:47 hrs.
   
  WARNING: Negative pressures at 7:00:00 hrs.
   
  WARNING: Negative pressures at 7:02:18 hrs.
  WARNING: FCV 7 open but cannot deliver flow at 7:02:18 hrs.
   
  WARNING: Negative pressures at 7:03:15 hrs.
   
  WARNING: Negative pressures at 7:03:53 hrs.
  WARNING: FCV 7 open but cannot deliver flow at 7:03:53 hrs.
   
  WARNING: Negative pressures at 7:07:26 hrs.
   
  WARNING: Negative pressures at 7:09:49 hrs.
  WARNING: FCV 7 open but cannot deliver flow at 7:09:49 hrs.
   
  WARNING: Negative pressures at 7:13:24 hrs.
   
  WARNING: Negative pressures at 7:15:49 hrs.
  WARNING: FCV 7 open but cannot deliver flow at 7:15:49 hrs.
   
  WARNING: Negative pressures at 7:17:44 hrs.
   
  WARNING: Negative pressures at 7:19:01 hrs.
  WARNING: FCV 7 open but cannot deliver flow at 7:19:01 hrs.
   
  WARNING: Negative pressures at 7:23:49 hrs.
   
  WARNING: Negative pressures at 7:27:02 hrs.
  WARNING: FCV 7 open but cannot deliver flow at 7:27:02 hrs.
   
  WARNING: Negative pressures at 7:28:12 hrs.
   
  WARNING: Negative pressures at 7:28:59 hrs.
  WARNING: FCV 7 open but cannot deliver flow at 7:28:59 hrs.
   
  WARNING: Negative pressures at 7:34:20 hrs.
   
  WARNING: Negative pressures at 7:37:55 hrs.
  WARNING: FCV 7 open but cannot deliver flow at 7:37:55 hrs.
   
  WARNING: Negative pressures at 7:38:43 hrs.
   
  WARNING: Negative pressures at 7:39:15 hrs.
  WARNING: FCV 7 open but cannot deliver flow at 7:39:15 hrs.
   
  WARNING: Negative pressures at 7:44:52 hrs.
   
  WARNING: Negative pressures at 7:48:38 hrs.
  WARNING: FCV 7 open but cannot deliver flow at 7:48:38 hrs.
   
  WARNING: Negative pressures at 7:49:15 hrs.
   
  WARNING: Negative pressures at 7:49:40 hrs.
  WARNING: FCV 7 open but cannot deliver flow at 7:49:40 hrs.
   
  WARNING: Negative pressures at 7:55:25 hrs.
   
  WARNING: Negative pressures at 7:59:16 hrs.
  WARNING: FCV 7 open but cannot deliver flow at 7:59:16 hrs.
   
  WARNING: Negative pressures at 7:59:49 hrs.
   
  WARNING: Negative pressures at 8:00:00 hrs.
   
  WARNING: Negative pressures at 8:00:10 hrs.
  WARNING: FCV 7 open but cannot deliver flow at 8:00:10 hrs.
   
  WARNING: Negative pressures at 8:06:03 hrs.
   
  WARNING: Negative pressures at 8:09:26 hrs.
  WARNING: FCV 7 open but cannot deliver flow at 8:09:26 hrs.
   
  WARNING: Negative pressures at 8:10:24 hrs.
   
  WARNING: Negative pressures at 8:10:57 hrs.
  WARNING: FCV 7 open but cannot deliver flow at 8:10:57 hrs.
   
  WARNING: Negative pressures at 8:13:30 hrs.
  WARNING: FCV 7 open but cannot deliver flow at 8:13:30 hrs.
   
  WARNING: Negative pressures at 8:14:23 hrs.
  WARNING: FCV 7 open but cannot deliver flow at 8:14:23 hrs.
   
  WARNING: Negative pressures at 8:32:47 hrs.
  WARNING: FCV 7 open but cannot deliver flow at 8:32:47 hrs.
   
  WARNING: Negative pressures at 8:36:03 hrs.
  WARNING: FCV 7 open but cannot deliver flow at 8:36:03 hrs.
   
  WARNING: Negative pressures at 8:39:12 hrs.
  WARNING: FCV 7 open but cannot deliver flow at 8:39:12 hrs.
   
  WARNING: Negative pressures at 9:00:00 hrs.
  WARNING: FCV 7 open but cannot deliver flow at 9:00:00 hrs.
   
  WARNING: Negative pressures at 9:02:26 hrs.
  WARNING: FCV 7 open but cannot deliver flow at 9:02:26 hrs.
   
  WARNING: Negative pressures at 9:05:24 hrs.
   
  WARNING: Negative pressures at 9:05:46 hrs.
   
  WARNING: Negative pressures at 9:07:38 hrs.
  WARNING: FCV 7 open but cannot deliver flow at 9:07:38 hrs.
   
  WARNING: Negative pressures at 9:11:56 hrs.
   
  WARNING: Negative pressures at 9:13:47 hrs.
  WARNING: FCV 7 open but cannot deliver flow at 9:13:47 hrs.
   
  WARNING: Negative pressures at 9:16:10 hrs.
   
  WARNING: Negative pressures at 9:17:11 hrs.
  WARNING: FCV 7 open but cannot deliver flow at 9:17:11 hrs.
   
  WARNING: Negative pressures at 9:22:26 hrs.
   
  WARNING: Negative pressures at 9:24:41 hrs.
  WARNING: FCV 7 open but cannot deliver flow at 9:24:41 hrs.
   
  WARNING: Negative pressures at 9:26:42 hrs.
   
  WARNING: Negative pressures at 9:27:34 hrs.
  WARNING: FCV 7 open but cannot deliver flow at 9:27:34 hrs.
   
  WARNING: Negative pressures at 9:32:59 hrs.
   
  WARNING: Negative pressures at 9:35:18 hrs.
  WARNING: FCV 7 open but cannot deliver flow at 9:35:18 hrs.
   
  WARNING: Negative pressures at 9:37:15 hrs.
   
  WARNING: Negative pressures at 9:38:05 hrs.
  WARNING: FCV 7 open but cannot deliver flow at 9:38:05 hrs.
   
  WARNING: Negative pressures at 9:43:33 hrs.
   
  WARNING: Negative pressures at 9:45:53 hrs.
  WARNING: FCV 7 open but cannot deliver flow at 9:45:53 hrs.
   
  WARNING: Negative pressures at 9:47:49 hrs.
   
  WARNING: Negative pressures at 9:48:38 hrs.
  WARNING: FCV 7 open but cannot deliver flow at 9:48:38 hrs.
   
  WARNING: Negative pressures at 9:54:08 hrs.
   
  WARNING: Negative pressures at 9:56:28 hrs.
  WARNING: FCV 7 open but cannot deliver flow at 9:56:28 hrs.
   
  WARNING: Negative pressures at 9:58:24 hrs.
   
  WARNING: Negative pressures at 9:59:13 hrs.
  WARNING: FCV 7 open but cannot deliver flow at 9:59:13 hrs.
   
  WARNING: Negative pressures at 10:00:00 hrs.
   
  WARNING: Negative pressures at 10:00:23 hrs.
  WARNING: FCV 7 open but cannot deliver flow at 10:00:23 hrs.
   
  WARNING: Negative pressures at 10:04:35 hrs.
   
  WARNING: Negative pressures at 10:07:00 hrs.
  WARNING: FCV 7 open but cannot deliver flow at 10:07:00 hrs.
   
  WARNING: Negative pressures at 10:08:54 hrs.
   
  WARNING: Negative pressures at 10:10:00 hrs.
  WARNING: FCV 7 open but cannot deliver flow at 10:10:00 hrs.
   
  WARNING: Negative pressures at 10:15:04 hrs.
   
  WARNING: Negative pressures at 10:17:59 hrs.
  WARNING: FCV 7 open but cannot deliver flow at 10:17:59 hrs.
   
  WARNING: Negative pressures at 10:19:24 hrs.
   
  WARNING: Negative pressures at 10:20:13 hrs.
  WARNING: FCV 7 open but cannot deliver flow at 10:20:13 hrs.
   
  WARNING: Negative pressures at 10:22:53 hrs.
  WARNING: FCV 7 open but cannot deliver flow at 10:22:53 hrs.
   
  WARNING: Negative pressures at 10:23:49 hrs.
  WARNING: FCV 7 open but cannot deliver flow at 10:23:49 hrs.
   
  WARNING: Negative pressures at 10:39:04 hrs.
  WARNING: FCV 7 open but cannot deliver flow at 10:39:04 hrs.
   
  WARNING: Negative pressures at 10:42:19 hrs.
  WARNING: FCV 7 open but cannot deliver flow at 10:42:19 hrs.
   
  WARNING: Negative pressures at 10:44:23 hrs.
  WARNING: FCV 7 open but cannot deliver flow at 10:44:23 hrs.
   
  WARNING: Negative pressures at 11:00:00 hrs.
  WARNING: FCV 7 open but cannot deliver flow at 11:00:00 hrs.
   
  WARNING: Negative pressures at 11:04:29 hrs.
  WARNING: FCV 7 open but cannot deliver flow at 11:04:29 hrs.
   
  WARNING: Negative pressures at 11:05:51 hrs.
  WARNING: FCV 7 open but cannot deliver flow at 11:05:51 hrs.
   
  WARNING: Negative pressures at 11:07:25 hrs.
  WARNING: FCV 7 open but cannot deliver flow at 11:07:25 hrs.
   
  WARNING: Negative pressures at 11:08:06 hrs.
  WARNING: FCV 7 open but cannot deliver flow at 11:08:06 hrs.
   
  WARNING: Negative pressures at 11:11:54 hrs.
   
  WARNING: Negative pressures at 11:14:54 hrs.
  WARNING: FCV 7 open but cannot deliver flow at 11:14:54 hrs.
   
  WARNING: Negative pressures at 11:16:44 hrs.
   
  WARNING: Negative pressures at 11:18:11 hrs.
  WARNING: FCV 7 open but cannot deliver flow at 11:18:11 hrs.
   
  WARNING: Negative pressures at 11:21:01 hrs.
   
  WARNING: Negative pressures at 11:23:15 hrs.
  WARNING: FCV 7 open but cannot deliver flow at 11:23:15 hrs.
   
  WARNING: Negative pressures at 11:26:57 hrs.
   
  WARNING: Negative pressures at 11:29:52 hrs.
  WARNING: FCV 7 open but cannot deliver flow at 11:29:52 hrs.
   
  WARNING: Negative pressures at 11:31:20 hrs.
   
  WARNING: Negative pressures at 11:32:29 hrs.
  WARNING: FCV 7 open but cannot deliver flow at 11:32:29 hrs.
   
  WARNING: Negative pressures at 11:37:21 hrs.
   
  WARNING: Negative pressures at 11:41:10 hrs.
  WARNING: FCV 7 open but cannot deliver flow at 11:41:10 hrs.
   
  WARNING: Negative pressures at 11:41:45 hrs.
   
  WARNING: Negative pressures at 11:42:12 hrs.
  WARNING: FCV 7 open but cannot deliver flow at 11:42:12 hrs.
   
  WARNING: Negative pressures at 11:47:50 hrs.
   
  WARNING: Negative pressures at 11:52:15 hrs.
  WARNING: FCV 7 open but cannot deliver flow at 11:52:15 hrs.
   
  WARNING: Negative pressures at 11:58:22 hrs.
   
  WARNING: Negative pressures at 12:00:00 hrs.
   
  WARNING: Negative pressures at 12:02:50 hrs.
   
  WARNING: Negative pressures at 12:02:56 hrs.
  WARNING: FCV 7 open but cannot deliver flow at 12:02:56 hrs.
   
  WARNING: Negative pressures at 12:09:00 hrs.
   
  WARNING: Negative pressures at 12:13:05 hrs.
  WARNING: FCV 7 open but cannot deliver flow at 12:13:05 hrs.
   
  WARNING: Negative pressures at 12:13:24 hrs.
   
  WARNING: Negative pressures at 12:13:37 hrs.
  WARNING: FCV 7 open but cannot deliver flow at 12:13:37 hrs.
   
  WARNING: Negative pressures at 12:19:34 hrs.
   
  WARNING: Negative pressures at 12:23:34 hrs.
  WARNING: FCV 7 open but cannot deliver flow at 12:23:34 hrs.
   
  WARNING: Negative pressures at 12:23:58 hrs.
   
  WARNING: Negative pressures at 12:24:14 hrs.
  WARNING: FCV 7 open but cannot deliver flow at 12:24:14 hrs.
   
  WARNING: Negative pressures at 12:30:08 hrs.
   
  WARNING: Negative pressures at 12:34:06 hrs.
  WARNING: FCV 7 open but cannot deliver flow at 12:34:06 hrs.
   
  WARNING: Negative pressures at 12:34:32 hrs.
   
  WARNING: Negative pressures at 12:34:49 hrs.
  WARNING: FCV 7 open but cannot deliver flow at 12:34:49 hrs.
   
  WARNING: Negative pressures at 12:40:42 hrs.
   
  WARNING: Negative pressures at 12:44:39 hrs.
  WARNING: FCV 7 open but cannot deliver flow at 12:44:39 hrs.
   
  WARNING: Negative pressures at 12:45:06 hrs.
   
  WARNING: Negative pressures at 12:45:24 hrs.
  WARNING: FCV 7 open but cannot deliver flow at 12:45:24 hrs.
   
  WARNING: Negative pressures at 12:51:16 hrs.
   
  WARNING: Negative pressures at 12:55:12 hrs.
  WARNING: FCV 7 open but cannot deliver flow at 12:55:12 hrs.
   
  WARNING: Negative pressures at 12:55:40 hrs.
   
  WARNING: Negative pressures at 12:55:59 hrs.
  WARNING: FCV 7 open but cannot deliver flow at 12:55:59 hrs.
   
  WARNING: Negative pressures at 13:00:00 hrs.
   
  WARNING: Negative pressures at 13:01:40 hrs.
   
  WARNING: Negative pressures at 13:03:08 hrs.
  WARNING: FCV 7 open but cannot deliver flow at 13:03:08 hrs.
   
  WARNING: Negative pressures at 13:05:58 hrs.
   
  WARNING: Negative pressures at 13:08:31 hrs.
  WARNING: FCV 7 open but cannot deliver flow at 13:08:31 hrs.
   
  WARNING: Negative pressures at 13:11:51 hrs.
   
  WARNING: Negative pressures at 13:14:51 hrs.
  WARNING: FCV 7 open but cannot deliver flow at 13:14:51 hrs.
   
  WARNING: Negative pressures at 13:16:15 hrs.
   
  WARNING: Negative pressures at 13:17:30 hrs.
  WARNING: FCV 7 open but cannot deliver flow at 13:17:30 hrs.
   
  WARNING: Negative pressures at 13:22:14 hrs.
   
  WARNING: Negative pressures at 13:26:29 hrs.
  WARNING: FCV 7 open but cannot deliver flow at 13:26:29 hrs.
   
  WARNING: Negative pressures at 13:26:40 hrs.
   
  WARNING: Negative pressures at 13:26:50 hrs.
  WARNING: FCV 7 open but cannot deliver flow at 13:26:50 hrs.
   
  WARNING: Negative pressures at 13:32:44 hrs.
   
  WARNING: Negative pressures at 13:37:10 hrs.
   
  WARNING: Negative pressures at 13:38:01 hrs.
  WARNING: FCV 7 open but cannot deliver flow at 13:38:01 hrs.
   
  WARNING: Negative pressures at 13:43:11 hrs.
   
  WARNING: Negative pressures at 13:47:37 hrs.
   
  WARNING: Negative pressures at 13:47:49 hrs.
  WARNING: FCV 7 open but cannot deliver flow at 13:47:49 hrs.
   
  WARNING: Negative pressures at 13:52:53 hrs.
  WARNING: FCV 7 open but cannot deliver flow at 13:52:53 hrs.
   
  WARNING: Negative pressures at 13:54:11 hrs.
  WARNING: FCV 7 open but cannot deliver flow at 13:54:11 hrs.
   
  WARNING: Negative pressures at 13:55:21 hrs.
  WARNING: FCV 7 open but cannot deliver flow at 13:55:21 hrs.
   
  WARNING: Negative pressures at 13:57:06 hrs.
  WARNING: FCV 7 open but cannot deliver flow at 13:57:06 hrs.
   
  WARNING: Negative pressures at 13:57:57 hrs.
  WARNING: FCV 7 open but cannot deliver flow at 13:57:57 hrs.
   
  WARNING: Negative pressures at 14:00:00 hrs.
  WARNING: FCV 7 open but cannot deliver flow at 14:00:00 hrs.
   
  WARNING: Negative pressures at 14:01:13 hrs.
  WARNING: FCV 7 open but cannot deliver flow at 14:01:13 hrs.
   
  WARNING: Negative pressures at 14:20:34 hrs.
  WARNING: FCV 7 open but cannot deliver flow at 14:20:34 hrs.
   
  WARNING: Negative pressures at 14:23:58 hrs.
  WARNING: FCV 7 open but cannot deliver flow at 14:23:58 hrs.
   
  WARNING: Negative pressures at 14:25:15 hrs.
   
  WARNING: Negative pressures at 14:30:00 hrs.
   
  WARNING: Negative pressures at 14:34:29 hrs.
   
  WARNING: Negative pressures at 14:40:01 hrs.
   
  WARNING: Negative pressures at 14:44:30 hrs.
   
  WARNING: Negative pressures at 14:50:02 hrs.
   
  WARNING: Negative pressures at 14:53:39 hrs.
  WARNING: FCV 7 open but cannot deliver flow at 14:53:39 hrs.
   
  WARNING: Negative pressures at 14:54:31 hrs.
   
  WARNING: Negative pressures at 14:56:22 hrs.
  WARNING: FCV 7 open but cannot deliver flow at 14:56:22 hrs.
   
  WARNING: Negative pressures at 15:00:00 hrs.
   
  WARNING: Negative pressures at 15:00:11 hrs.
   
  WARNING: Negative pressures at 15:04:28 hrs.
  WARNING: FCV 7 open but cannot deliver flow at 15:04:28 hrs.
   
  WARNING: Negative pressures at 15:04:37 hrs.
   
  WARNING: Negative pressures at 15:04:45 hrs.
  WARNING: FCV 7 open but cannot deliver flow at 15:04:45 hrs.
   
  WARNING: Negative pressures at 15:10:38 hrs.
   
  WARNING: Negative pressures at 15:15:04 hrs.
   
  WARNING: Negative pressures at 15:16:03 hrs.
  WARNING: FCV 7 open but cannot deliver flow at 15:16:03 hrs.
   
  WARNING: Negative pressures at 15:21:02 hrs.
   
  WARNING: Negative pressures at 15:25:28 hrs.
   
  WARNING: Negative pressures at 15:25:37 hrs.
  WARNING: FCV 7 open but cannot deliver flow at 15:25:37 hrs.
   
  WARNING: Negative pressures at 15:31:29 hrs.
   
  WARNING: Negative pressures at 15:35:54 hrs.
   
  WARNING: Negative pressures at 15:36:52 hrs.
  WARNING: FCV 7 open but cannot deliver flow at 15:36:52 hrs.
   
  WARNING: Negative pressures at 15:41:52 hrs.
   
  WARNING: Negative pressures at 15:46:18 hrs.
   
  WARNING: Negative pressures at 15:46:27 hrs.
  WARNING: FCV 7 open but cannot deliver flow at 15:46:27 hrs.
   
  WARNING: Negative pressures at 15:52:20 hrs.
   
  WARNING: Negative pressures at 15:56:46 hrs.
   
  WARNING: Negative pressures at 15:57:44 hrs.
  WARNING: FCV 7 open but cannot deliver flow at 15:57:44 hrs.
   
  WARNING: Negative pressures at 16:00:00 hrs.
   
  WARNING: Negative pressures at 16:01:40 hrs.
  WARNING: FCV 7 open but cannot deliver flow at 16:01:40 hrs.
   
  WARNING: Negative pressures at 16:02:40 hrs.
   
  WARNING: Negative pressures at 16:03:15 hrs.
  WARNING: FCV 7 open but cannot deliver flow at 16:03:15 hrs.
   
  WARNING: Negative pressures at 16:06:50 hrs.
   
  WARNING: Negative pressures at 16:08:56 hrs.
  WARNING: FCV 7 open but cannot deliver flow at 16:08:56 hrs.
   
  WARNING: Negative pressures at 16:12:52 hrs.
   
  WARNING: Negative pressures at 16:15:10 hrs.
  WARNING: FCV 7 open but cannot deliver flow at 16:15:10 hrs.
   
  WARNING: Negative pressures at 16:17:10 hrs.
   
  WARNING: Negative pressures at 16:18:20 hrs.
  WARNING: FCV 7 open but cannot deliver flow at 16:18:20 hrs.
   
  WARNING: Negative pressures at 16:23:18 hrs.
   
  WARNING: Negative pressures at 16:26:12 hrs.
  WARNING: FCV 7 open but cannot deliver flow at 16:26:12 hrs.
   
  WARNING: Negative pressures at 16:27:39 hrs.
   
  WARNING: Negative pressures at 16:28:30 hrs.
  WARNING: FCV 7 open but cannot deliver flow at 16:28:30 hrs.
   
  WARNING: Negative pressures at 16:33:49 hrs.
   
  WARNING: Negative pressures at 16:36:55 hrs.
  WARNING: FCV 7 open but cannot deliver flow at 16:36:55 hrs.
   
  WARNING: Negative pressures at 16:38:10 hrs.
   
  WARNING: Negative pressures at 16:38:54 hrs.
  WARNING: FCV 7 open but cannot deliver flow at 16:38:54 hrs.
   
  WARNING: Negative pressures at 16:44:21 hrs.
   
  WARNING: Negative pressures at 16:47:31 hrs.
  WARNING: FCV 7 open but cannot deliver flow at 16:47:31 hrs.
   
  WARNING: Negative pressures at 16:48:42 hrs.
   
  WARNING: Negative pressures at 16:49:23 hrs.
  WARNING: FCV 7 open but cannot deliver flow at 16:49:23 hrs.
   
  WARNING: Negative pressures at 16:54:53 hrs.
   
  WARNING: Negative pressures at 16:58:04 hrs.
  WARNING: FCV 7 open but cannot deliver flow at 16:58:04 hrs.
   
  WARNING: Negative pressures at 16:59:14 hrs.
   
  WARNING: Negative pressures at 16:59:55 hrs.
  WARNING: FCV 7 open but cannot deliver flow at 16:59:55 hrs.
   
  WARNING: Negative pressures at 17:00:00 hrs.
   
  WARNING: Negative pressures at 17:00:03 hrs.
  WARNING: FCV 7 open but cannot deliver flow at 17:00:03 hrs.
   
  WARNING: Negative pressures at 17:05:33 hrs.
   
  WARNING: Negative pressures at 17:07:54 hrs.
  WARNING: FCV 7 open but cannot deliver flow at 17:07:54 hrs.
   
  WARNING: Negative pressures at 17:09:49 hrs.
   
  WARNING: Negative pressures at 17:10:38 hrs.
  WARNING: FCV 7 open but cannot deliver flow at 17:10:38 hrs.
   
  WARNING: Negative pressures at 17:16:08 hrs.
   
  WARNING: Negative pressures at 17:18:28 hrs.
  WARNING: FCV 7 open but cannot deliver flow at 17:18:28 hrs.
   
  WARNING: Negative pressures at 17:20:24 hrs.
   
  WARNING: Negative pressures at 17:21:13 hrs.
  WARNING: FCV 7 open but cannot deliver flow at 17:21:13 hrs.
   
  WARNING: Negative pressures at 17:26:43 hrs.
   
  WARNING: Negative pressures at 17:29:03 hrs.
  WARNING: FCV 7 open but cannot deliver flow at 17:29:03 hrs.
   
  WARNING: Negative pressures at 17:30:59 hrs.
   
  WARNING: Negative pressures at 17:31:48 hrs.
  WARNING: FCV 7 open but cannot deliver flow at 17:31:48 hrs.
   
  WARNING: Negative pressures at 17:32:00 hrs.
  WARNING: FCV 7 open but cannot deliver flow at 17:32:00 hrs.
   
  WARNING: Negative pressures at 17:32:03 hrs.
  WARNING: FCV 7 open but cannot deliver flow at 17:32:03 hrs.
   
  WARNING: Negative pressures at 18:00:00 hrs.
  WARNING: FCV 7 open but cannot deliver flow at 18:00:00 hrs.
   
  WARNING: Negative pressures at 18:03:12 hrs.
  WARNING: FCV 7 open but cannot deliver flow at 18:03:12 hrs.
   
  WARNING: Negative pressures at 18:06:25 hrs.
  WARNING: FCV 7 open but cannot deliver flow at 18:06:25 hrs.
   
  WARNING: Negative pressures at 18:07:38 hrs.
  WARNING: FCV 7 open but cannot deliver flow at 18:07:38 hrs.
   
  WARNING: Negative pressures at 18:33:11 hrs.
   
  WARNING: Negative pressures at 18:35:31 hrs.
   
  WARNING: Negative pressures at 18:39:53 hrs.
   
  WARNING: Negative pressures at 18:44:10 hrs.
  WARNING: FCV 7 open but cannot deliver flow at 18:44:10 hrs.
   
  WARNING: Negative pressures at 18:45:46 hrs.
   
  WARNING: Negative pressures at 18:46:27 hrs.
  WARNING: FCV 7 open but cannot deliver flow at 18:46:27 hrs.
   
  WARNING: Negative pressures at 18:49:53 hrs.
   
  WARNING: Negative pressures at 18:51:21 hrs.
  WARNING: FCV 7 open but cannot deliver flow at 18:51:21 hrs.
   
  WARNING: Negative pressures at 18:56:06 hrs.
   
  WARNING: Negative pressures at 18:58:08 hrs.
  WARNING: FCV 7 open but cannot deliver flow at 18:58:08 hrs.
   
  WARNING: Negative pressures at 19:00:00 hrs.
   
  WARNING: Negative pressures at 19:00:23 hrs.
   
  WARNING: Negative pressures at 19:00:45 hrs.
  WARNING: FCV 7 open but cannot deliver flow at 19:00:45 hrs.
   
  WARNING: Negative pressures at 19:06:48 hrs.
   
  WARNING: Negative pressures at 19:09:00 hrs.
  WARNING: FCV 7 open but cannot deliver flow at 19:09:00 hrs.
   
  WARNING: Negative pressures at 19:11:02 hrs.
   
  WARNING: Negative pressures at 19:11:46 hrs.
  WARNING: FCV 7 open but cannot deliver flow at 19:11:46 hrs.
   
  WARNING: Negative pressures at 19:17:25 hrs.
   
  WARNING: Negative pressures at 19:19:28 hrs.
  WARNING: FCV 7 open but cannot deliver flow at 19:19:28 hrs.
   
  WARNING: Negative pressures at 19:21:38 hrs.
   
  WARNING: Negative pressures at 19:22:25 hrs.
  WARNING: FCV 7 open but cannot deliver flow at 19:22:25 hrs.
   
  WARNING: Negative pressures at 19:28:01 hrs.
   
  WARNING: Negative pressures at 19:30:02 hrs.
  WARNING: FCV 7 open but cannot deliver flow at 19:30:02 hrs.
   
  WARNING: Negative pressures at 19:32:14 hrs.
   
  WARNING: Negative pressures at 19:33:02 hrs.
  WARNING: FCV 7 open but cannot deliver flow at 19:33:02 hrs.
   
  WARNING: Negative pressures at 19:38:37 hrs.
   
  WARNING: Negative pressures at 19:40:38 hrs.
  WARNING: FCV 7 open but cannot deliver flow at 19:40:38 hrs.
   
  WARNING: Negative pressures at 19:42:13 hrs.
  WARNING: FCV 7 open but cannot deliver flow at 19:42:13 hrs.
   
  WARNING: Negative pressures at 19:42:36 hrs.
  WARNING: FCV 7 open but cannot deliver flow at 19:42:36 hrs.
   
  WARNING: Negative pressures at 19:42:42 hrs.
  WARNING: FCV 7 open but cannot deliver flow at 19:42:42 hrs.
   
  WARNING: Negative pressures at 19:42:43 hrs.
  WARNING: FCV 7 open but cannot deliver flow at 19:42:43 hrs.
   
  WARNING: Negative pressures at 20:00:00 hrs.
  WARNING: FCV 7 open but cannot deliver flow at 20:00:00 hrs.
   
  WARNING: Negative pressures at 20:03:52 hrs.
  WARNING: FCV 7 open but cannot deliver flow at 20:03:52 hrs.
   
  WARNING: Negative pressures at 20:31:47 hrs.
  WARNING: FCV 7 open but cannot deliver flow at 20:31:47 hrs.
   
  WARNING: Negative pressures at 20:34:57 hrs.
  WARNING: FCV 7 open but cannot deliver flow at 20:34:57 hrs.
   
  WARNING: Negative pressures at 20:36:40 hrs.
  WARNING: FCV 7 open but cannot deliver flow at 20:36:40 hrs.
   
  WARNING: Negative pressures at 21:00:00 hrs.
  WARNING: FCV 7 open but cannot deliver flow at 21:00:00 hrs.
   
  WARNING: Negative pressures at 21:04:04 hrs.
  WARNING: FCV 7 open but cannot deliver flow at 21:04:04 hrs.
   
  WARNING: Negative pressures at 21:04:33 hrs.
   
  WARNING: Negative pressures at 21:04:40 hrs.
  WARNING: FCV 7 open but cannot deliver flow at 21:04:40 hrs.
   
  WARNING: Negative pressures at 21:05:41 hrs.
   
  WARNING: Negative pressures at 21:05:57 hrs.
  WARNING: FCV 7 open but cannot deliver flow at 21:05:57 hrs.
   
  WARNING: Negative pressures at 21:09:40 hrs.
   
  WARNING: Negative pressures at 21:10:37 hrs.
  WARNING: FCV 7 open but cannot deliver flow at 21:10:37 hrs.
   
  WARNING: Negative pressures at 21:16:08 hrs.
   
  WARNING: Negative pressures at 21:17:32 hrs.
  WARNING: FCV 7 open but cannot deliver flow at 21:17:32 hrs.
   
  WARNING: Negative pressures at 21:20:15 hrs.
   
  WARNING: Negative pressures at 21:20:57 hrs.
  WARNING: FCV 7 open but cannot deliver flow at 21:20:57 hrs.
   
  WARNING: Negative pressures at 21:26:46 hrs.
   
  WARNING: Negative pressures at 21:28:15 hrs.
  WARNING: FCV 7 open but cannot deliver flow at 21:28:15 hrs.
   
  WARNING: Negative pressures at 21:30:54 hrs.
   
  WARNING: Negative pressures at 21:31:34 hrs.
  WARNING: FCV 7 open but cannot deliver flow at 21:31:34 hrs.
   
  WARNING: Negative pressures at 21:37:26 hrs.
   
  WARNING: Negative pressures at 21:38:55 hrs.
  WARNING: FCV 7 open but cannot deliver flow at 21:38:55 hrs.
   
  WARNING: Negative pressures at 21:41:34 hrs.
   
  WARNING: Negative pressures at 21:42:14 hrs.
  WARNING: FCV 7 open but cannot deliver flow at 21:42:14 hrs.
   
  WARNING: Negative pressures at 21:48:06 hrs.
   
  WARNING: Negative pressures at 21:49:35 hrs.
  WARNING: FCV 7 open but cannot deliver flow at 21:49:35 hrs.
   
  WARNING: Negative pressures at 21:52:13 hrs.
   
  WARNING: Negative pressures at 21:52:53 hrs.
  WARNING: FCV 7 open but cannot deliver flow at 21:52:53 hrs.
   
  WARNING: Negative pressures at 21:54:24 hrs.
  WARNING: FCV 7 open but cannot deliver flow at 21:54:24 hrs.
   
  WARNING: Negative pressures at 21:54:40 hrs.
  WARNING: FCV 7 open but cannot deliver flow at 21:54:40 hrs.
   
  WARNING: Negative pressures at 22:00:00 hrs.
  WARNING: FCV 7 open but cannot deliver flow at 22:00:00 hrs.
  WARNING: FCV 15 open but cannot deliver flow at 22:00:00 hrs.
   
  WARNING: Negative pressures at 22:00:50 hrs.
  WARNING: FCV 7 open but cannot deliver flow at 22:00:50 hrs.
  WARNING: FCV 15 open but cannot deliver flow at 22:00:50 hrs.
   
  WARNING: Negative pressures at 23:00:00 hrs.
  WARNING: FCV 7 open but cannot deliver flow at 23:00:00 hrs.
  WARNING: FCV 15 open but cannot deliver flow at 23:00:00 hrs.
   
  WARNING: Negative pressures at 23:01:59 hrs.
  WARNING: FCV 7 open but cannot deliver flow at 23:01:59 hrs.
  WARNING: FCV 15 open but cannot deliver flow at 23:01:59 hrs.
   
  WARNING: Negative pressures at 23:03:59 hrs.
  WARNING: FCV 7 open but cannot deliver flow at 23:03:59 hrs.
  WARNING: FCV 15 open but cannot deliver flow at 23:03:59 hrs.
   
  WARNING: Negative pressures at 23:04:54 hrs.
  WARNING: FCV 7 open but cannot deliver flow at 23:04:54 hrs.
  WARNING: FCV 15 open but cannot deliver flow at 23:04:54 hrs.
   
  WARNING: Negative pressures at 23:04:58 hrs.
  WARNING: FCV 7 open but cannot deliver flow at 23:04:58 hrs.
  WARNING: FCV 15 open but cannot deliver flow at 23:04:58 hrs.
   
  WARNING: Negative pressures at 24:00:00 hrs.
  WARNING: FCV 7 open but cannot deliver flow at 24:00:00 hrs.
  WARNING: FCV 15 open but cannot deliver flow at 24:00:00 hrs.
   
  Analysis ended Fri Aug 04 01:37:25 2023
